 ****** HSPICE -- A-2008.03 32-BIT (Feb 26 2008) winnt ******                   
  Copyright (C) 2008 Synopsys, Inc. All Rights Reserved.                        
  Unpublished-rights reserved under US copyright laws.
  This program is protected by law and is subject to the 
  terms and conditions of the license agreement found in:
    C:\synopsys\Hspice_A-2008.03\license.warn
  Use of this program is your acceptance to be bound by this 
  license agreement. HSPICE is the trademark of Synopsys, Inc.
  Input File: c:\users\mehrdad\desktop\ca\ca\1\a\a.sp                           
 Init: read install configuration file: C:\synopsys\Hspice_A-2008.03\meta.cfg
 Init: hspice initialization file: C:\synopsys\Hspice_A-2008.03\hspice.ini





 ***** params *****
 .param  
 +vdd = 1v
 +gnd = 0v
 +lmin = 45n
 +l_d = 100n
 +w_d = 1u

 ***** temperature *****
 .temp	25

 ***** sources *****
 *v      n+  n-  pulse   v1  v2  td  tr  tf  pw  per
 vsupply	vm	0	dc	vdd
 vina    a	0	dc	vdd
 *pulse  gnd  vdd 0  1p 1p 2000p 5000p

 ***** component *****
 mn1     vm      a       gnd     gnd     nmos    l='l_d'    w='w_d'


 ***** type of analysis *****
 ***** transient analysis:
 .tran	0.1ns     200ns   1ns

 ****
 .print  tran lx7(mn1)

 .end

 ***********************************************************************
 ** runlvl is invoked, you can disable it by:
      a) Add option runlvl=0 to your current simulation job.
      b) Copy $installdir/hspice.ini to your HOME directory and
         customize it by adding option runlvl=0, which disables
         it for all of your simulation jobs.
      c) Re-invoke $installdir/bin/config program and unselect the
         option runlvl setting in box 'hspice.ini' which disables
         it for whole group simulation jobs.

 ** runlvl is invoked, some options are ignored or automatically set:
      Options below are automatically set(user setting will overwrite them):
      if runlvl=6,            .option bypass=0
      if runlvl=[1|2|3|4|5],  .option bypass=2

      Options below are ignored, they are replaced by automated algorithms:
        lvltim    dvdt      ft    fast   trtol  absvar  relvar
          relq  chgtol    dvtr    imin    itl3    rmax

 ** runlvl is invoked, actual option value used by HSPICE are:
       runlvl= 3       bypass= 2      mbypass=   2.00   bytol= 100.00u
 ***********************************************************************


 **warning** recommend to set start explicitly:
             .TRAN tstep tstop START=val


 ** warning** associated with encrypted blocks were suppressed

 
      
1****** HSPICE -- A-2008.03 32-BIT (Feb 26 2008) winnt ******                   
 ******  
 * fist part                                                                    
  ******  operating point information      tnom=  25.000 temp=  25.000          
 ******  
 ***** operating point status is voltage   simulation time is     0.     
    node    =voltage      node    =voltage

 +0:a       =   1.0000  0:vm      =   1.0000 

 ******  
 * fist part                                                                    
  ******  transient analysis               tnom=  25.000 temp=  25.000          
 ******  
x

        time    lx7        
                    mn1    
    1.00000n      1.2048m  
    1.10000n      1.2048m  
    1.20000n      1.2048m  
    1.30000n      1.2048m  
    1.40000n      1.2048m  
    1.50000n      1.2048m  
    1.60000n      1.2048m  
    1.70000n      1.2048m  
    1.80000n      1.2048m  
    1.90000n      1.2048m  
    2.00000n      1.2048m  
    2.10000n      1.2048m  
    2.20000n      1.2048m  
    2.30000n      1.2048m  
    2.40000n      1.2048m  
    2.50000n      1.2048m  
    2.60000n      1.2048m  
    2.70000n      1.2048m  
    2.80000n      1.2048m  
    2.90000n      1.2048m  
    3.00000n      1.2048m  
    3.10000n      1.2048m  
    3.20000n      1.2048m  
    3.30000n      1.2048m  
    3.40000n      1.2048m  
    3.50000n      1.2048m  
    3.60000n      1.2048m  
    3.70000n      1.2048m  
    3.80000n      1.2048m  
    3.90000n      1.2048m  
    4.00000n      1.2048m  
    4.10000n      1.2048m  
    4.20000n      1.2048m  
    4.30000n      1.2048m  
    4.40000n      1.2048m  
    4.50000n      1.2048m  
    4.60000n      1.2048m  
    4.70000n      1.2048m  
    4.80000n      1.2048m  
    4.90000n      1.2048m  
    5.00000n      1.2048m  
    5.10000n      1.2048m  
    5.20000n      1.2048m  
    5.30000n      1.2048m  
    5.40000n      1.2048m  
    5.50000n      1.2048m  
    5.60000n      1.2048m  
    5.70000n      1.2048m  
    5.80000n      1.2048m  
    5.90000n      1.2048m  
    6.00000n      1.2048m  
    6.10000n      1.2048m  
    6.20000n      1.2048m  
    6.30000n      1.2048m  
    6.40000n      1.2048m  
    6.50000n      1.2048m  
    6.60000n      1.2048m  
    6.70000n      1.2048m  
    6.80000n      1.2048m  
    6.90000n      1.2048m  
    7.00000n      1.2048m  
    7.10000n      1.2048m  
    7.20000n      1.2048m  
    7.30000n      1.2048m  
    7.40000n      1.2048m  
    7.50000n      1.2048m  
    7.60000n      1.2048m  
    7.70000n      1.2048m  
    7.80000n      1.2048m  
    7.90000n      1.2048m  
    8.00000n      1.2048m  
    8.10000n      1.2048m  
    8.20000n      1.2048m  
    8.30000n      1.2048m  
    8.40000n      1.2048m  
    8.50000n      1.2048m  
    8.60000n      1.2048m  
    8.70000n      1.2048m  
    8.80000n      1.2048m  
    8.90000n      1.2048m  
    9.00000n      1.2048m  
    9.10000n      1.2048m  
    9.20000n      1.2048m  
    9.30000n      1.2048m  
    9.40000n      1.2048m  
    9.50000n      1.2048m  
    9.60000n      1.2048m  
    9.70000n      1.2048m  
    9.80000n      1.2048m  
    9.90000n      1.2048m  
   10.00000n      1.2048m  
   10.10000n      1.2048m  
   10.20000n      1.2048m  
   10.30000n      1.2048m  
   10.40000n      1.2048m  
   10.50000n      1.2048m  
   10.60000n      1.2048m  
   10.70000n      1.2048m  
   10.80000n      1.2048m  
   10.90000n      1.2048m  
   11.00000n      1.2048m  
   11.10000n      1.2048m  
   11.20000n      1.2048m  
   11.30000n      1.2048m  
   11.40000n      1.2048m  
   11.50000n      1.2048m  
   11.60000n      1.2048m  
   11.70000n      1.2048m  
   11.80000n      1.2048m  
   11.90000n      1.2048m  
   12.00000n      1.2048m  
   12.10000n      1.2048m  
   12.20000n      1.2048m  
   12.30000n      1.2048m  
   12.40000n      1.2048m  
   12.50000n      1.2048m  
   12.60000n      1.2048m  
   12.70000n      1.2048m  
   12.80000n      1.2048m  
   12.90000n      1.2048m  
   13.00000n      1.2048m  
   13.10000n      1.2048m  
   13.20000n      1.2048m  
   13.30000n      1.2048m  
   13.40000n      1.2048m  
   13.50000n      1.2048m  
   13.60000n      1.2048m  
   13.70000n      1.2048m  
   13.80000n      1.2048m  
   13.90000n      1.2048m  
   14.00000n      1.2048m  
   14.10000n      1.2048m  
   14.20000n      1.2048m  
   14.30000n      1.2048m  
   14.40000n      1.2048m  
   14.50000n      1.2048m  
   14.60000n      1.2048m  
   14.70000n      1.2048m  
   14.80000n      1.2048m  
   14.90000n      1.2048m  
   15.00000n      1.2048m  
   15.10000n      1.2048m  
   15.20000n      1.2048m  
   15.30000n      1.2048m  
   15.40000n      1.2048m  
   15.50000n      1.2048m  
   15.60000n      1.2048m  
   15.70000n      1.2048m  
   15.80000n      1.2048m  
   15.90000n      1.2048m  
   16.00000n      1.2048m  
   16.10000n      1.2048m  
   16.20000n      1.2048m  
   16.30000n      1.2048m  
   16.40000n      1.2048m  
   16.50000n      1.2048m  
   16.60000n      1.2048m  
   16.70000n      1.2048m  
   16.80000n      1.2048m  
   16.90000n      1.2048m  
   17.00000n      1.2048m  
   17.10000n      1.2048m  
   17.20000n      1.2048m  
   17.30000n      1.2048m  
   17.40000n      1.2048m  
   17.50000n      1.2048m  
   17.60000n      1.2048m  
   17.70000n      1.2048m  
   17.80000n      1.2048m  
   17.90000n      1.2048m  
   18.00000n      1.2048m  
   18.10000n      1.2048m  
   18.20000n      1.2048m  
   18.30000n      1.2048m  
   18.40000n      1.2048m  
   18.50000n      1.2048m  
   18.60000n      1.2048m  
   18.70000n      1.2048m  
   18.80000n      1.2048m  
   18.90000n      1.2048m  
   19.00000n      1.2048m  
   19.10000n      1.2048m  
   19.20000n      1.2048m  
   19.30000n      1.2048m  
   19.40000n      1.2048m  
   19.50000n      1.2048m  
   19.60000n      1.2048m  
   19.70000n      1.2048m  
   19.80000n      1.2048m  
   19.90000n      1.2048m  
   20.00000n      1.2048m  
   20.10000n      1.2048m  
   20.20000n      1.2048m  
   20.30000n      1.2048m  
   20.40000n      1.2048m  
   20.50000n      1.2048m  
   20.60000n      1.2048m  
   20.70000n      1.2048m  
   20.80000n      1.2048m  
   20.90000n      1.2048m  
   21.00000n      1.2048m  
   21.10000n      1.2048m  
   21.20000n      1.2048m  
   21.30000n      1.2048m  
   21.40000n      1.2048m  
   21.50000n      1.2048m  
   21.60000n      1.2048m  
   21.70000n      1.2048m  
   21.80000n      1.2048m  
   21.90000n      1.2048m  
   22.00000n      1.2048m  
   22.10000n      1.2048m  
   22.20000n      1.2048m  
   22.30000n      1.2048m  
   22.40000n      1.2048m  
   22.50000n      1.2048m  
   22.60000n      1.2048m  
   22.70000n      1.2048m  
   22.80000n      1.2048m  
   22.90000n      1.2048m  
   23.00000n      1.2048m  
   23.10000n      1.2048m  
   23.20000n      1.2048m  
   23.30000n      1.2048m  
   23.40000n      1.2048m  
   23.50000n      1.2048m  
   23.60000n      1.2048m  
   23.70000n      1.2048m  
   23.80000n      1.2048m  
   23.90000n      1.2048m  
   24.00000n      1.2048m  
   24.10000n      1.2048m  
   24.20000n      1.2048m  
   24.30000n      1.2048m  
   24.40000n      1.2048m  
   24.50000n      1.2048m  
   24.60000n      1.2048m  
   24.70000n      1.2048m  
   24.80000n      1.2048m  
   24.90000n      1.2048m  
   25.00000n      1.2048m  
   25.10000n      1.2048m  
   25.20000n      1.2048m  
   25.30000n      1.2048m  
   25.40000n      1.2048m  
   25.50000n      1.2048m  
   25.60000n      1.2048m  
   25.70000n      1.2048m  
   25.80000n      1.2048m  
   25.90000n      1.2048m  
   26.00000n      1.2048m  
   26.10000n      1.2048m  
   26.20000n      1.2048m  
   26.30000n      1.2048m  
   26.40000n      1.2048m  
   26.50000n      1.2048m  
   26.60000n      1.2048m  
   26.70000n      1.2048m  
   26.80000n      1.2048m  
   26.90000n      1.2048m  
   27.00000n      1.2048m  
   27.10000n      1.2048m  
   27.20000n      1.2048m  
   27.30000n      1.2048m  
   27.40000n      1.2048m  
   27.50000n      1.2048m  
   27.60000n      1.2048m  
   27.70000n      1.2048m  
   27.80000n      1.2048m  
   27.90000n      1.2048m  
   28.00000n      1.2048m  
   28.10000n      1.2048m  
   28.20000n      1.2048m  
   28.30000n      1.2048m  
   28.40000n      1.2048m  
   28.50000n      1.2048m  
   28.60000n      1.2048m  
   28.70000n      1.2048m  
   28.80000n      1.2048m  
   28.90000n      1.2048m  
   29.00000n      1.2048m  
   29.10000n      1.2048m  
   29.20000n      1.2048m  
   29.30000n      1.2048m  
   29.40000n      1.2048m  
   29.50000n      1.2048m  
   29.60000n      1.2048m  
   29.70000n      1.2048m  
   29.80000n      1.2048m  
   29.90000n      1.2048m  
   30.00000n      1.2048m  
   30.10000n      1.2048m  
   30.20000n      1.2048m  
   30.30000n      1.2048m  
   30.40000n      1.2048m  
   30.50000n      1.2048m  
   30.60000n      1.2048m  
   30.70000n      1.2048m  
   30.80000n      1.2048m  
   30.90000n      1.2048m  
   31.00000n      1.2048m  
   31.10000n      1.2048m  
   31.20000n      1.2048m  
   31.30000n      1.2048m  
   31.40000n      1.2048m  
   31.50000n      1.2048m  
   31.60000n      1.2048m  
   31.70000n      1.2048m  
   31.80000n      1.2048m  
   31.90000n      1.2048m  
   32.00000n      1.2048m  
   32.10000n      1.2048m  
   32.20000n      1.2048m  
   32.30000n      1.2048m  
   32.40000n      1.2048m  
   32.50000n      1.2048m  
   32.60000n      1.2048m  
   32.70000n      1.2048m  
   32.80000n      1.2048m  
   32.90000n      1.2048m  
   33.00000n      1.2048m  
   33.10000n      1.2048m  
   33.20000n      1.2048m  
   33.30000n      1.2048m  
   33.40000n      1.2048m  
   33.50000n      1.2048m  
   33.60000n      1.2048m  
   33.70000n      1.2048m  
   33.80000n      1.2048m  
   33.90000n      1.2048m  
   34.00000n      1.2048m  
   34.10000n      1.2048m  
   34.20000n      1.2048m  
   34.30000n      1.2048m  
   34.40000n      1.2048m  
   34.50000n      1.2048m  
   34.60000n      1.2048m  
   34.70000n      1.2048m  
   34.80000n      1.2048m  
   34.90000n      1.2048m  
   35.00000n      1.2048m  
   35.10000n      1.2048m  
   35.20000n      1.2048m  
   35.30000n      1.2048m  
   35.40000n      1.2048m  
   35.50000n      1.2048m  
   35.60000n      1.2048m  
   35.70000n      1.2048m  
   35.80000n      1.2048m  
   35.90000n      1.2048m  
   36.00000n      1.2048m  
   36.10000n      1.2048m  
   36.20000n      1.2048m  
   36.30000n      1.2048m  
   36.40000n      1.2048m  
   36.50000n      1.2048m  
   36.60000n      1.2048m  
   36.70000n      1.2048m  
   36.80000n      1.2048m  
   36.90000n      1.2048m  
   37.00000n      1.2048m  
   37.10000n      1.2048m  
   37.20000n      1.2048m  
   37.30000n      1.2048m  
   37.40000n      1.2048m  
   37.50000n      1.2048m  
   37.60000n      1.2048m  
   37.70000n      1.2048m  
   37.80000n      1.2048m  
   37.90000n      1.2048m  
   38.00000n      1.2048m  
   38.10000n      1.2048m  
   38.20000n      1.2048m  
   38.30000n      1.2048m  
   38.40000n      1.2048m  
   38.50000n      1.2048m  
   38.60000n      1.2048m  
   38.70000n      1.2048m  
   38.80000n      1.2048m  
   38.90000n      1.2048m  
   39.00000n      1.2048m  
   39.10000n      1.2048m  
   39.20000n      1.2048m  
   39.30000n      1.2048m  
   39.40000n      1.2048m  
   39.50000n      1.2048m  
   39.60000n      1.2048m  
   39.70000n      1.2048m  
   39.80000n      1.2048m  
   39.90000n      1.2048m  
   40.00000n      1.2048m  
   40.10000n      1.2048m  
   40.20000n      1.2048m  
   40.30000n      1.2048m  
   40.40000n      1.2048m  
   40.50000n      1.2048m  
   40.60000n      1.2048m  
   40.70000n      1.2048m  
   40.80000n      1.2048m  
   40.90000n      1.2048m  
   41.00000n      1.2048m  
   41.10000n      1.2048m  
   41.20000n      1.2048m  
   41.30000n      1.2048m  
   41.40000n      1.2048m  
   41.50000n      1.2048m  
   41.60000n      1.2048m  
   41.70000n      1.2048m  
   41.80000n      1.2048m  
   41.90000n      1.2048m  
   42.00000n      1.2048m  
   42.10000n      1.2048m  
   42.20000n      1.2048m  
   42.30000n      1.2048m  
   42.40000n      1.2048m  
   42.50000n      1.2048m  
   42.60000n      1.2048m  
   42.70000n      1.2048m  
   42.80000n      1.2048m  
   42.90000n      1.2048m  
   43.00000n      1.2048m  
   43.10000n      1.2048m  
   43.20000n      1.2048m  
   43.30000n      1.2048m  
   43.40000n      1.2048m  
   43.50000n      1.2048m  
   43.60000n      1.2048m  
   43.70000n      1.2048m  
   43.80000n      1.2048m  
   43.90000n      1.2048m  
   44.00000n      1.2048m  
   44.10000n      1.2048m  
   44.20000n      1.2048m  
   44.30000n      1.2048m  
   44.40000n      1.2048m  
   44.50000n      1.2048m  
   44.60000n      1.2048m  
   44.70000n      1.2048m  
   44.80000n      1.2048m  
   44.90000n      1.2048m  
   45.00000n      1.2048m  
   45.10000n      1.2048m  
   45.20000n      1.2048m  
   45.30000n      1.2048m  
   45.40000n      1.2048m  
   45.50000n      1.2048m  
   45.60000n      1.2048m  
   45.70000n      1.2048m  
   45.80000n      1.2048m  
   45.90000n      1.2048m  
   46.00000n      1.2048m  
   46.10000n      1.2048m  
   46.20000n      1.2048m  
   46.30000n      1.2048m  
   46.40000n      1.2048m  
   46.50000n      1.2048m  
   46.60000n      1.2048m  
   46.70000n      1.2048m  
   46.80000n      1.2048m  
   46.90000n      1.2048m  
   47.00000n      1.2048m  
   47.10000n      1.2048m  
   47.20000n      1.2048m  
   47.30000n      1.2048m  
   47.40000n      1.2048m  
   47.50000n      1.2048m  
   47.60000n      1.2048m  
   47.70000n      1.2048m  
   47.80000n      1.2048m  
   47.90000n      1.2048m  
   48.00000n      1.2048m  
   48.10000n      1.2048m  
   48.20000n      1.2048m  
   48.30000n      1.2048m  
   48.40000n      1.2048m  
   48.50000n      1.2048m  
   48.60000n      1.2048m  
   48.70000n      1.2048m  
   48.80000n      1.2048m  
   48.90000n      1.2048m  
   49.00000n      1.2048m  
   49.10000n      1.2048m  
   49.20000n      1.2048m  
   49.30000n      1.2048m  
   49.40000n      1.2048m  
   49.50000n      1.2048m  
   49.60000n      1.2048m  
   49.70000n      1.2048m  
   49.80000n      1.2048m  
   49.90000n      1.2048m  
   50.00000n      1.2048m  
   50.10000n      1.2048m  
   50.20000n      1.2048m  
   50.30000n      1.2048m  
   50.40000n      1.2048m  
   50.50000n      1.2048m  
   50.60000n      1.2048m  
   50.70000n      1.2048m  
   50.80000n      1.2048m  
   50.90000n      1.2048m  
   51.00000n      1.2048m  
   51.10000n      1.2048m  
   51.20000n      1.2048m  
   51.30000n      1.2048m  
   51.40000n      1.2048m  
   51.50000n      1.2048m  
   51.60000n      1.2048m  
   51.70000n      1.2048m  
   51.80000n      1.2048m  
   51.90000n      1.2048m  
   52.00000n      1.2048m  
   52.10000n      1.2048m  
   52.20000n      1.2048m  
   52.30000n      1.2048m  
   52.40000n      1.2048m  
   52.50000n      1.2048m  
   52.60000n      1.2048m  
   52.70000n      1.2048m  
   52.80000n      1.2048m  
   52.90000n      1.2048m  
   53.00000n      1.2048m  
   53.10000n      1.2048m  
   53.20000n      1.2048m  
   53.30000n      1.2048m  
   53.40000n      1.2048m  
   53.50000n      1.2048m  
   53.60000n      1.2048m  
   53.70000n      1.2048m  
   53.80000n      1.2048m  
   53.90000n      1.2048m  
   54.00000n      1.2048m  
   54.10000n      1.2048m  
   54.20000n      1.2048m  
   54.30000n      1.2048m  
   54.40000n      1.2048m  
   54.50000n      1.2048m  
   54.60000n      1.2048m  
   54.70000n      1.2048m  
   54.80000n      1.2048m  
   54.90000n      1.2048m  
   55.00000n      1.2048m  
   55.10000n      1.2048m  
   55.20000n      1.2048m  
   55.30000n      1.2048m  
   55.40000n      1.2048m  
   55.50000n      1.2048m  
   55.60000n      1.2048m  
   55.70000n      1.2048m  
   55.80000n      1.2048m  
   55.90000n      1.2048m  
   56.00000n      1.2048m  
   56.10000n      1.2048m  
   56.20000n      1.2048m  
   56.30000n      1.2048m  
   56.40000n      1.2048m  
   56.50000n      1.2048m  
   56.60000n      1.2048m  
   56.70000n      1.2048m  
   56.80000n      1.2048m  
   56.90000n      1.2048m  
   57.00000n      1.2048m  
   57.10000n      1.2048m  
   57.20000n      1.2048m  
   57.30000n      1.2048m  
   57.40000n      1.2048m  
   57.50000n      1.2048m  
   57.60000n      1.2048m  
   57.70000n      1.2048m  
   57.80000n      1.2048m  
   57.90000n      1.2048m  
   58.00000n      1.2048m  
   58.10000n      1.2048m  
   58.20000n      1.2048m  
   58.30000n      1.2048m  
   58.40000n      1.2048m  
   58.50000n      1.2048m  
   58.60000n      1.2048m  
   58.70000n      1.2048m  
   58.80000n      1.2048m  
   58.90000n      1.2048m  
   59.00000n      1.2048m  
   59.10000n      1.2048m  
   59.20000n      1.2048m  
   59.30000n      1.2048m  
   59.40000n      1.2048m  
   59.50000n      1.2048m  
   59.60000n      1.2048m  
   59.70000n      1.2048m  
   59.80000n      1.2048m  
   59.90000n      1.2048m  
   60.00000n      1.2048m  
   60.10000n      1.2048m  
   60.20000n      1.2048m  
   60.30000n      1.2048m  
   60.40000n      1.2048m  
   60.50000n      1.2048m  
   60.60000n      1.2048m  
   60.70000n      1.2048m  
   60.80000n      1.2048m  
   60.90000n      1.2048m  
   61.00000n      1.2048m  
   61.10000n      1.2048m  
   61.20000n      1.2048m  
   61.30000n      1.2048m  
   61.40000n      1.2048m  
   61.50000n      1.2048m  
   61.60000n      1.2048m  
   61.70000n      1.2048m  
   61.80000n      1.2048m  
   61.90000n      1.2048m  
   62.00000n      1.2048m  
   62.10000n      1.2048m  
   62.20000n      1.2048m  
   62.30000n      1.2048m  
   62.40000n      1.2048m  
   62.50000n      1.2048m  
   62.60000n      1.2048m  
   62.70000n      1.2048m  
   62.80000n      1.2048m  
   62.90000n      1.2048m  
   63.00000n      1.2048m  
   63.10000n      1.2048m  
   63.20000n      1.2048m  
   63.30000n      1.2048m  
   63.40000n      1.2048m  
   63.50000n      1.2048m  
   63.60000n      1.2048m  
   63.70000n      1.2048m  
   63.80000n      1.2048m  
   63.90000n      1.2048m  
   64.00000n      1.2048m  
   64.10000n      1.2048m  
   64.20000n      1.2048m  
   64.30000n      1.2048m  
   64.40000n      1.2048m  
   64.50000n      1.2048m  
   64.60000n      1.2048m  
   64.70000n      1.2048m  
   64.80000n      1.2048m  
   64.90000n      1.2048m  
   65.00000n      1.2048m  
   65.10000n      1.2048m  
   65.20000n      1.2048m  
   65.30000n      1.2048m  
   65.40000n      1.2048m  
   65.50000n      1.2048m  
   65.60000n      1.2048m  
   65.70000n      1.2048m  
   65.80000n      1.2048m  
   65.90000n      1.2048m  
   66.00000n      1.2048m  
   66.10000n      1.2048m  
   66.20000n      1.2048m  
   66.30000n      1.2048m  
   66.40000n      1.2048m  
   66.50000n      1.2048m  
   66.60000n      1.2048m  
   66.70000n      1.2048m  
   66.80000n      1.2048m  
   66.90000n      1.2048m  
   67.00000n      1.2048m  
   67.10000n      1.2048m  
   67.20000n      1.2048m  
   67.30000n      1.2048m  
   67.40000n      1.2048m  
   67.50000n      1.2048m  
   67.60000n      1.2048m  
   67.70000n      1.2048m  
   67.80000n      1.2048m  
   67.90000n      1.2048m  
   68.00000n      1.2048m  
   68.10000n      1.2048m  
   68.20000n      1.2048m  
   68.30000n      1.2048m  
   68.40000n      1.2048m  
   68.50000n      1.2048m  
   68.60000n      1.2048m  
   68.70000n      1.2048m  
   68.80000n      1.2048m  
   68.90000n      1.2048m  
   69.00000n      1.2048m  
   69.10000n      1.2048m  
   69.20000n      1.2048m  
   69.30000n      1.2048m  
   69.40000n      1.2048m  
   69.50000n      1.2048m  
   69.60000n      1.2048m  
   69.70000n      1.2048m  
   69.80000n      1.2048m  
   69.90000n      1.2048m  
   70.00000n      1.2048m  
   70.10000n      1.2048m  
   70.20000n      1.2048m  
   70.30000n      1.2048m  
   70.40000n      1.2048m  
   70.50000n      1.2048m  
   70.60000n      1.2048m  
   70.70000n      1.2048m  
   70.80000n      1.2048m  
   70.90000n      1.2048m  
   71.00000n      1.2048m  
   71.10000n      1.2048m  
   71.20000n      1.2048m  
   71.30000n      1.2048m  
   71.40000n      1.2048m  
   71.50000n      1.2048m  
   71.60000n      1.2048m  
   71.70000n      1.2048m  
   71.80000n      1.2048m  
   71.90000n      1.2048m  
   72.00000n      1.2048m  
   72.10000n      1.2048m  
   72.20000n      1.2048m  
   72.30000n      1.2048m  
   72.40000n      1.2048m  
   72.50000n      1.2048m  
   72.60000n      1.2048m  
   72.70000n      1.2048m  
   72.80000n      1.2048m  
   72.90000n      1.2048m  
   73.00000n      1.2048m  
   73.10000n      1.2048m  
   73.20000n      1.2048m  
   73.30000n      1.2048m  
   73.40000n      1.2048m  
   73.50000n      1.2048m  
   73.60000n      1.2048m  
   73.70000n      1.2048m  
   73.80000n      1.2048m  
   73.90000n      1.2048m  
   74.00000n      1.2048m  
   74.10000n      1.2048m  
   74.20000n      1.2048m  
   74.30000n      1.2048m  
   74.40000n      1.2048m  
   74.50000n      1.2048m  
   74.60000n      1.2048m  
   74.70000n      1.2048m  
   74.80000n      1.2048m  
   74.90000n      1.2048m  
   75.00000n      1.2048m  
   75.10000n      1.2048m  
   75.20000n      1.2048m  
   75.30000n      1.2048m  
   75.40000n      1.2048m  
   75.50000n      1.2048m  
   75.60000n      1.2048m  
   75.70000n      1.2048m  
   75.80000n      1.2048m  
   75.90000n      1.2048m  
   76.00000n      1.2048m  
   76.10000n      1.2048m  
   76.20000n      1.2048m  
   76.30000n      1.2048m  
   76.40000n      1.2048m  
   76.50000n      1.2048m  
   76.60000n      1.2048m  
   76.70000n      1.2048m  
   76.80000n      1.2048m  
   76.90000n      1.2048m  
   77.00000n      1.2048m  
   77.10000n      1.2048m  
   77.20000n      1.2048m  
   77.30000n      1.2048m  
   77.40000n      1.2048m  
   77.50000n      1.2048m  
   77.60000n      1.2048m  
   77.70000n      1.2048m  
   77.80000n      1.2048m  
   77.90000n      1.2048m  
   78.00000n      1.2048m  
   78.10000n      1.2048m  
   78.20000n      1.2048m  
   78.30000n      1.2048m  
   78.40000n      1.2048m  
   78.50000n      1.2048m  
   78.60000n      1.2048m  
   78.70000n      1.2048m  
   78.80000n      1.2048m  
   78.90000n      1.2048m  
   79.00000n      1.2048m  
   79.10000n      1.2048m  
   79.20000n      1.2048m  
   79.30000n      1.2048m  
   79.40000n      1.2048m  
   79.50000n      1.2048m  
   79.60000n      1.2048m  
   79.70000n      1.2048m  
   79.80000n      1.2048m  
   79.90000n      1.2048m  
   80.00000n      1.2048m  
   80.10000n      1.2048m  
   80.20000n      1.2048m  
   80.30000n      1.2048m  
   80.40000n      1.2048m  
   80.50000n      1.2048m  
   80.60000n      1.2048m  
   80.70000n      1.2048m  
   80.80000n      1.2048m  
   80.90000n      1.2048m  
   81.00000n      1.2048m  
   81.10000n      1.2048m  
   81.20000n      1.2048m  
   81.30000n      1.2048m  
   81.40000n      1.2048m  
   81.50000n      1.2048m  
   81.60000n      1.2048m  
   81.70000n      1.2048m  
   81.80000n      1.2048m  
   81.90000n      1.2048m  
   82.00000n      1.2048m  
   82.10000n      1.2048m  
   82.20000n      1.2048m  
   82.30000n      1.2048m  
   82.40000n      1.2048m  
   82.50000n      1.2048m  
   82.60000n      1.2048m  
   82.70000n      1.2048m  
   82.80000n      1.2048m  
   82.90000n      1.2048m  
   83.00000n      1.2048m  
   83.10000n      1.2048m  
   83.20000n      1.2048m  
   83.30000n      1.2048m  
   83.40000n      1.2048m  
   83.50000n      1.2048m  
   83.60000n      1.2048m  
   83.70000n      1.2048m  
   83.80000n      1.2048m  
   83.90000n      1.2048m  
   84.00000n      1.2048m  
   84.10000n      1.2048m  
   84.20000n      1.2048m  
   84.30000n      1.2048m  
   84.40000n      1.2048m  
   84.50000n      1.2048m  
   84.60000n      1.2048m  
   84.70000n      1.2048m  
   84.80000n      1.2048m  
   84.90000n      1.2048m  
   85.00000n      1.2048m  
   85.10000n      1.2048m  
   85.20000n      1.2048m  
   85.30000n      1.2048m  
   85.40000n      1.2048m  
   85.50000n      1.2048m  
   85.60000n      1.2048m  
   85.70000n      1.2048m  
   85.80000n      1.2048m  
   85.90000n      1.2048m  
   86.00000n      1.2048m  
   86.10000n      1.2048m  
   86.20000n      1.2048m  
   86.30000n      1.2048m  
   86.40000n      1.2048m  
   86.50000n      1.2048m  
   86.60000n      1.2048m  
   86.70000n      1.2048m  
   86.80000n      1.2048m  
   86.90000n      1.2048m  
   87.00000n      1.2048m  
   87.10000n      1.2048m  
   87.20000n      1.2048m  
   87.30000n      1.2048m  
   87.40000n      1.2048m  
   87.50000n      1.2048m  
   87.60000n      1.2048m  
   87.70000n      1.2048m  
   87.80000n      1.2048m  
   87.90000n      1.2048m  
   88.00000n      1.2048m  
   88.10000n      1.2048m  
   88.20000n      1.2048m  
   88.30000n      1.2048m  
   88.40000n      1.2048m  
   88.50000n      1.2048m  
   88.60000n      1.2048m  
   88.70000n      1.2048m  
   88.80000n      1.2048m  
   88.90000n      1.2048m  
   89.00000n      1.2048m  
   89.10000n      1.2048m  
   89.20000n      1.2048m  
   89.30000n      1.2048m  
   89.40000n      1.2048m  
   89.50000n      1.2048m  
   89.60000n      1.2048m  
   89.70000n      1.2048m  
   89.80000n      1.2048m  
   89.90000n      1.2048m  
   90.00000n      1.2048m  
   90.10000n      1.2048m  
   90.20000n      1.2048m  
   90.30000n      1.2048m  
   90.40000n      1.2048m  
   90.50000n      1.2048m  
   90.60000n      1.2048m  
   90.70000n      1.2048m  
   90.80000n      1.2048m  
   90.90000n      1.2048m  
   91.00000n      1.2048m  
   91.10000n      1.2048m  
   91.20000n      1.2048m  
   91.30000n      1.2048m  
   91.40000n      1.2048m  
   91.50000n      1.2048m  
   91.60000n      1.2048m  
   91.70000n      1.2048m  
   91.80000n      1.2048m  
   91.90000n      1.2048m  
   92.00000n      1.2048m  
   92.10000n      1.2048m  
   92.20000n      1.2048m  
   92.30000n      1.2048m  
   92.40000n      1.2048m  
   92.50000n      1.2048m  
   92.60000n      1.2048m  
   92.70000n      1.2048m  
   92.80000n      1.2048m  
   92.90000n      1.2048m  
   93.00000n      1.2048m  
   93.10000n      1.2048m  
   93.20000n      1.2048m  
   93.30000n      1.2048m  
   93.40000n      1.2048m  
   93.50000n      1.2048m  
   93.60000n      1.2048m  
   93.70000n      1.2048m  
   93.80000n      1.2048m  
   93.90000n      1.2048m  
   94.00000n      1.2048m  
   94.10000n      1.2048m  
   94.20000n      1.2048m  
   94.30000n      1.2048m  
   94.40000n      1.2048m  
   94.50000n      1.2048m  
   94.60000n      1.2048m  
   94.70000n      1.2048m  
   94.80000n      1.2048m  
   94.90000n      1.2048m  
   95.00000n      1.2048m  
   95.10000n      1.2048m  
   95.20000n      1.2048m  
   95.30000n      1.2048m  
   95.40000n      1.2048m  
   95.50000n      1.2048m  
   95.60000n      1.2048m  
   95.70000n      1.2048m  
   95.80000n      1.2048m  
   95.90000n      1.2048m  
   96.00000n      1.2048m  
   96.10000n      1.2048m  
   96.20000n      1.2048m  
   96.30000n      1.2048m  
   96.40000n      1.2048m  
   96.50000n      1.2048m  
   96.60000n      1.2048m  
   96.70000n      1.2048m  
   96.80000n      1.2048m  
   96.90000n      1.2048m  
   97.00000n      1.2048m  
   97.10000n      1.2048m  
   97.20000n      1.2048m  
   97.30000n      1.2048m  
   97.40000n      1.2048m  
   97.50000n      1.2048m  
   97.60000n      1.2048m  
   97.70000n      1.2048m  
   97.80000n      1.2048m  
   97.90000n      1.2048m  
   98.00000n      1.2048m  
   98.10000n      1.2048m  
   98.20000n      1.2048m  
   98.30000n      1.2048m  
   98.40000n      1.2048m  
   98.50000n      1.2048m  
   98.60000n      1.2048m  
   98.70000n      1.2048m  
   98.80000n      1.2048m  
   98.90000n      1.2048m  
   99.00000n      1.2048m  
   99.10000n      1.2048m  
   99.20000n      1.2048m  
   99.30000n      1.2048m  
   99.40000n      1.2048m  
   99.50000n      1.2048m  
   99.60000n      1.2048m  
   99.70000n      1.2048m  
   99.80000n      1.2048m  
   99.90000n      1.2048m  
  100.00000n      1.2048m  
  100.10000n      1.2048m  
  100.20000n      1.2048m  
  100.30000n      1.2048m  
  100.40000n      1.2048m  
  100.50000n      1.2048m  
  100.60000n      1.2048m  
  100.70000n      1.2048m  
  100.80000n      1.2048m  
  100.90000n      1.2048m  
  101.00000n      1.2048m  
  101.10000n      1.2048m  
  101.20000n      1.2048m  
  101.30000n      1.2048m  
  101.40000n      1.2048m  
  101.50000n      1.2048m  
  101.60000n      1.2048m  
  101.70000n      1.2048m  
  101.80000n      1.2048m  
  101.90000n      1.2048m  
  102.00000n      1.2048m  
  102.10000n      1.2048m  
  102.20000n      1.2048m  
  102.30000n      1.2048m  
  102.40000n      1.2048m  
  102.50000n      1.2048m  
  102.60000n      1.2048m  
  102.70000n      1.2048m  
  102.80000n      1.2048m  
  102.90000n      1.2048m  
  103.00000n      1.2048m  
  103.10000n      1.2048m  
  103.20000n      1.2048m  
  103.30000n      1.2048m  
  103.40000n      1.2048m  
  103.50000n      1.2048m  
  103.60000n      1.2048m  
  103.70000n      1.2048m  
  103.80000n      1.2048m  
  103.90000n      1.2048m  
  104.00000n      1.2048m  
  104.10000n      1.2048m  
  104.20000n      1.2048m  
  104.30000n      1.2048m  
  104.40000n      1.2048m  
  104.50000n      1.2048m  
  104.60000n      1.2048m  
  104.70000n      1.2048m  
  104.80000n      1.2048m  
  104.90000n      1.2048m  
  105.00000n      1.2048m  
  105.10000n      1.2048m  
  105.20000n      1.2048m  
  105.30000n      1.2048m  
  105.40000n      1.2048m  
  105.50000n      1.2048m  
  105.60000n      1.2048m  
  105.70000n      1.2048m  
  105.80000n      1.2048m  
  105.90000n      1.2048m  
  106.00000n      1.2048m  
  106.10000n      1.2048m  
  106.20000n      1.2048m  
  106.30000n      1.2048m  
  106.40000n      1.2048m  
  106.50000n      1.2048m  
  106.60000n      1.2048m  
  106.70000n      1.2048m  
  106.80000n      1.2048m  
  106.90000n      1.2048m  
  107.00000n      1.2048m  
  107.10000n      1.2048m  
  107.20000n      1.2048m  
  107.30000n      1.2048m  
  107.40000n      1.2048m  
  107.50000n      1.2048m  
  107.60000n      1.2048m  
  107.70000n      1.2048m  
  107.80000n      1.2048m  
  107.90000n      1.2048m  
  108.00000n      1.2048m  
  108.10000n      1.2048m  
  108.20000n      1.2048m  
  108.30000n      1.2048m  
  108.40000n      1.2048m  
  108.50000n      1.2048m  
  108.60000n      1.2048m  
  108.70000n      1.2048m  
  108.80000n      1.2048m  
  108.90000n      1.2048m  
  109.00000n      1.2048m  
  109.10000n      1.2048m  
  109.20000n      1.2048m  
  109.30000n      1.2048m  
  109.40000n      1.2048m  
  109.50000n      1.2048m  
  109.60000n      1.2048m  
  109.70000n      1.2048m  
  109.80000n      1.2048m  
  109.90000n      1.2048m  
  110.00000n      1.2048m  
  110.10000n      1.2048m  
  110.20000n      1.2048m  
  110.30000n      1.2048m  
  110.40000n      1.2048m  
  110.50000n      1.2048m  
  110.60000n      1.2048m  
  110.70000n      1.2048m  
  110.80000n      1.2048m  
  110.90000n      1.2048m  
  111.00000n      1.2048m  
  111.10000n      1.2048m  
  111.20000n      1.2048m  
  111.30000n      1.2048m  
  111.40000n      1.2048m  
  111.50000n      1.2048m  
  111.60000n      1.2048m  
  111.70000n      1.2048m  
  111.80000n      1.2048m  
  111.90000n      1.2048m  
  112.00000n      1.2048m  
  112.10000n      1.2048m  
  112.20000n      1.2048m  
  112.30000n      1.2048m  
  112.40000n      1.2048m  
  112.50000n      1.2048m  
  112.60000n      1.2048m  
  112.70000n      1.2048m  
  112.80000n      1.2048m  
  112.90000n      1.2048m  
  113.00000n      1.2048m  
  113.10000n      1.2048m  
  113.20000n      1.2048m  
  113.30000n      1.2048m  
  113.40000n      1.2048m  
  113.50000n      1.2048m  
  113.60000n      1.2048m  
  113.70000n      1.2048m  
  113.80000n      1.2048m  
  113.90000n      1.2048m  
  114.00000n      1.2048m  
  114.10000n      1.2048m  
  114.20000n      1.2048m  
  114.30000n      1.2048m  
  114.40000n      1.2048m  
  114.50000n      1.2048m  
  114.60000n      1.2048m  
  114.70000n      1.2048m  
  114.80000n      1.2048m  
  114.90000n      1.2048m  
  115.00000n      1.2048m  
  115.10000n      1.2048m  
  115.20000n      1.2048m  
  115.30000n      1.2048m  
  115.40000n      1.2048m  
  115.50000n      1.2048m  
  115.60000n      1.2048m  
  115.70000n      1.2048m  
  115.80000n      1.2048m  
  115.90000n      1.2048m  
  116.00000n      1.2048m  
  116.10000n      1.2048m  
  116.20000n      1.2048m  
  116.30000n      1.2048m  
  116.40000n      1.2048m  
  116.50000n      1.2048m  
  116.60000n      1.2048m  
  116.70000n      1.2048m  
  116.80000n      1.2048m  
  116.90000n      1.2048m  
  117.00000n      1.2048m  
  117.10000n      1.2048m  
  117.20000n      1.2048m  
  117.30000n      1.2048m  
  117.40000n      1.2048m  
  117.50000n      1.2048m  
  117.60000n      1.2048m  
  117.70000n      1.2048m  
  117.80000n      1.2048m  
  117.90000n      1.2048m  
  118.00000n      1.2048m  
  118.10000n      1.2048m  
  118.20000n      1.2048m  
  118.30000n      1.2048m  
  118.40000n      1.2048m  
  118.50000n      1.2048m  
  118.60000n      1.2048m  
  118.70000n      1.2048m  
  118.80000n      1.2048m  
  118.90000n      1.2048m  
  119.00000n      1.2048m  
  119.10000n      1.2048m  
  119.20000n      1.2048m  
  119.30000n      1.2048m  
  119.40000n      1.2048m  
  119.50000n      1.2048m  
  119.60000n      1.2048m  
  119.70000n      1.2048m  
  119.80000n      1.2048m  
  119.90000n      1.2048m  
  120.00000n      1.2048m  
  120.10000n      1.2048m  
  120.20000n      1.2048m  
  120.30000n      1.2048m  
  120.40000n      1.2048m  
  120.50000n      1.2048m  
  120.60000n      1.2048m  
  120.70000n      1.2048m  
  120.80000n      1.2048m  
  120.90000n      1.2048m  
  121.00000n      1.2048m  
  121.10000n      1.2048m  
  121.20000n      1.2048m  
  121.30000n      1.2048m  
  121.40000n      1.2048m  
  121.50000n      1.2048m  
  121.60000n      1.2048m  
  121.70000n      1.2048m  
  121.80000n      1.2048m  
  121.90000n      1.2048m  
  122.00000n      1.2048m  
  122.10000n      1.2048m  
  122.20000n      1.2048m  
  122.30000n      1.2048m  
  122.40000n      1.2048m  
  122.50000n      1.2048m  
  122.60000n      1.2048m  
  122.70000n      1.2048m  
  122.80000n      1.2048m  
  122.90000n      1.2048m  
  123.00000n      1.2048m  
  123.10000n      1.2048m  
  123.20000n      1.2048m  
  123.30000n      1.2048m  
  123.40000n      1.2048m  
  123.50000n      1.2048m  
  123.60000n      1.2048m  
  123.70000n      1.2048m  
  123.80000n      1.2048m  
  123.90000n      1.2048m  
  124.00000n      1.2048m  
  124.10000n      1.2048m  
  124.20000n      1.2048m  
  124.30000n      1.2048m  
  124.40000n      1.2048m  
  124.50000n      1.2048m  
  124.60000n      1.2048m  
  124.70000n      1.2048m  
  124.80000n      1.2048m  
  124.90000n      1.2048m  
  125.00000n      1.2048m  
  125.10000n      1.2048m  
  125.20000n      1.2048m  
  125.30000n      1.2048m  
  125.40000n      1.2048m  
  125.50000n      1.2048m  
  125.60000n      1.2048m  
  125.70000n      1.2048m  
  125.80000n      1.2048m  
  125.90000n      1.2048m  
  126.00000n      1.2048m  
  126.10000n      1.2048m  
  126.20000n      1.2048m  
  126.30000n      1.2048m  
  126.40000n      1.2048m  
  126.50000n      1.2048m  
  126.60000n      1.2048m  
  126.70000n      1.2048m  
  126.80000n      1.2048m  
  126.90000n      1.2048m  
  127.00000n      1.2048m  
  127.10000n      1.2048m  
  127.20000n      1.2048m  
  127.30000n      1.2048m  
  127.40000n      1.2048m  
  127.50000n      1.2048m  
  127.60000n      1.2048m  
  127.70000n      1.2048m  
  127.80000n      1.2048m  
  127.90000n      1.2048m  
  128.00000n      1.2048m  
  128.10000n      1.2048m  
  128.20000n      1.2048m  
  128.30000n      1.2048m  
  128.40000n      1.2048m  
  128.50000n      1.2048m  
  128.60000n      1.2048m  
  128.70000n      1.2048m  
  128.80000n      1.2048m  
  128.90000n      1.2048m  
  129.00000n      1.2048m  
  129.10000n      1.2048m  
  129.20000n      1.2048m  
  129.30000n      1.2048m  
  129.40000n      1.2048m  
  129.50000n      1.2048m  
  129.60000n      1.2048m  
  129.70000n      1.2048m  
  129.80000n      1.2048m  
  129.90000n      1.2048m  
  130.00000n      1.2048m  
  130.10000n      1.2048m  
  130.20000n      1.2048m  
  130.30000n      1.2048m  
  130.40000n      1.2048m  
  130.50000n      1.2048m  
  130.60000n      1.2048m  
  130.70000n      1.2048m  
  130.80000n      1.2048m  
  130.90000n      1.2048m  
  131.00000n      1.2048m  
  131.10000n      1.2048m  
  131.20000n      1.2048m  
  131.30000n      1.2048m  
  131.40000n      1.2048m  
  131.50000n      1.2048m  
  131.60000n      1.2048m  
  131.70000n      1.2048m  
  131.80000n      1.2048m  
  131.90000n      1.2048m  
  132.00000n      1.2048m  
  132.10000n      1.2048m  
  132.20000n      1.2048m  
  132.30000n      1.2048m  
  132.40000n      1.2048m  
  132.50000n      1.2048m  
  132.60000n      1.2048m  
  132.70000n      1.2048m  
  132.80000n      1.2048m  
  132.90000n      1.2048m  
  133.00000n      1.2048m  
  133.10000n      1.2048m  
  133.20000n      1.2048m  
  133.30000n      1.2048m  
  133.40000n      1.2048m  
  133.50000n      1.2048m  
  133.60000n      1.2048m  
  133.70000n      1.2048m  
  133.80000n      1.2048m  
  133.90000n      1.2048m  
  134.00000n      1.2048m  
  134.10000n      1.2048m  
  134.20000n      1.2048m  
  134.30000n      1.2048m  
  134.40000n      1.2048m  
  134.50000n      1.2048m  
  134.60000n      1.2048m  
  134.70000n      1.2048m  
  134.80000n      1.2048m  
  134.90000n      1.2048m  
  135.00000n      1.2048m  
  135.10000n      1.2048m  
  135.20000n      1.2048m  
  135.30000n      1.2048m  
  135.40000n      1.2048m  
  135.50000n      1.2048m  
  135.60000n      1.2048m  
  135.70000n      1.2048m  
  135.80000n      1.2048m  
  135.90000n      1.2048m  
  136.00000n      1.2048m  
  136.10000n      1.2048m  
  136.20000n      1.2048m  
  136.30000n      1.2048m  
  136.40000n      1.2048m  
  136.50000n      1.2048m  
  136.60000n      1.2048m  
  136.70000n      1.2048m  
  136.80000n      1.2048m  
  136.90000n      1.2048m  
  137.00000n      1.2048m  
  137.10000n      1.2048m  
  137.20000n      1.2048m  
  137.30000n      1.2048m  
  137.40000n      1.2048m  
  137.50000n      1.2048m  
  137.60000n      1.2048m  
  137.70000n      1.2048m  
  137.80000n      1.2048m  
  137.90000n      1.2048m  
  138.00000n      1.2048m  
  138.10000n      1.2048m  
  138.20000n      1.2048m  
  138.30000n      1.2048m  
  138.40000n      1.2048m  
  138.50000n      1.2048m  
  138.60000n      1.2048m  
  138.70000n      1.2048m  
  138.80000n      1.2048m  
  138.90000n      1.2048m  
  139.00000n      1.2048m  
  139.10000n      1.2048m  
  139.20000n      1.2048m  
  139.30000n      1.2048m  
  139.40000n      1.2048m  
  139.50000n      1.2048m  
  139.60000n      1.2048m  
  139.70000n      1.2048m  
  139.80000n      1.2048m  
  139.90000n      1.2048m  
  140.00000n      1.2048m  
  140.10000n      1.2048m  
  140.20000n      1.2048m  
  140.30000n      1.2048m  
  140.40000n      1.2048m  
  140.50000n      1.2048m  
  140.60000n      1.2048m  
  140.70000n      1.2048m  
  140.80000n      1.2048m  
  140.90000n      1.2048m  
  141.00000n      1.2048m  
  141.10000n      1.2048m  
  141.20000n      1.2048m  
  141.30000n      1.2048m  
  141.40000n      1.2048m  
  141.50000n      1.2048m  
  141.60000n      1.2048m  
  141.70000n      1.2048m  
  141.80000n      1.2048m  
  141.90000n      1.2048m  
  142.00000n      1.2048m  
  142.10000n      1.2048m  
  142.20000n      1.2048m  
  142.30000n      1.2048m  
  142.40000n      1.2048m  
  142.50000n      1.2048m  
  142.60000n      1.2048m  
  142.70000n      1.2048m  
  142.80000n      1.2048m  
  142.90000n      1.2048m  
  143.00000n      1.2048m  
  143.10000n      1.2048m  
  143.20000n      1.2048m  
  143.30000n      1.2048m  
  143.40000n      1.2048m  
  143.50000n      1.2048m  
  143.60000n      1.2048m  
  143.70000n      1.2048m  
  143.80000n      1.2048m  
  143.90000n      1.2048m  
  144.00000n      1.2048m  
  144.10000n      1.2048m  
  144.20000n      1.2048m  
  144.30000n      1.2048m  
  144.40000n      1.2048m  
  144.50000n      1.2048m  
  144.60000n      1.2048m  
  144.70000n      1.2048m  
  144.80000n      1.2048m  
  144.90000n      1.2048m  
  145.00000n      1.2048m  
  145.10000n      1.2048m  
  145.20000n      1.2048m  
  145.30000n      1.2048m  
  145.40000n      1.2048m  
  145.50000n      1.2048m  
  145.60000n      1.2048m  
  145.70000n      1.2048m  
  145.80000n      1.2048m  
  145.90000n      1.2048m  
  146.00000n      1.2048m  
  146.10000n      1.2048m  
  146.20000n      1.2048m  
  146.30000n      1.2048m  
  146.40000n      1.2048m  
  146.50000n      1.2048m  
  146.60000n      1.2048m  
  146.70000n      1.2048m  
  146.80000n      1.2048m  
  146.90000n      1.2048m  
  147.00000n      1.2048m  
  147.10000n      1.2048m  
  147.20000n      1.2048m  
  147.30000n      1.2048m  
  147.40000n      1.2048m  
  147.50000n      1.2048m  
  147.60000n      1.2048m  
  147.70000n      1.2048m  
  147.80000n      1.2048m  
  147.90000n      1.2048m  
  148.00000n      1.2048m  
  148.10000n      1.2048m  
  148.20000n      1.2048m  
  148.30000n      1.2048m  
  148.40000n      1.2048m  
  148.50000n      1.2048m  
  148.60000n      1.2048m  
  148.70000n      1.2048m  
  148.80000n      1.2048m  
  148.90000n      1.2048m  
  149.00000n      1.2048m  
  149.10000n      1.2048m  
  149.20000n      1.2048m  
  149.30000n      1.2048m  
  149.40000n      1.2048m  
  149.50000n      1.2048m  
  149.60000n      1.2048m  
  149.70000n      1.2048m  
  149.80000n      1.2048m  
  149.90000n      1.2048m  
  150.00000n      1.2048m  
  150.10000n      1.2048m  
  150.20000n      1.2048m  
  150.30000n      1.2048m  
  150.40000n      1.2048m  
  150.50000n      1.2048m  
  150.60000n      1.2048m  
  150.70000n      1.2048m  
  150.80000n      1.2048m  
  150.90000n      1.2048m  
  151.00000n      1.2048m  
  151.10000n      1.2048m  
  151.20000n      1.2048m  
  151.30000n      1.2048m  
  151.40000n      1.2048m  
  151.50000n      1.2048m  
  151.60000n      1.2048m  
  151.70000n      1.2048m  
  151.80000n      1.2048m  
  151.90000n      1.2048m  
  152.00000n      1.2048m  
  152.10000n      1.2048m  
  152.20000n      1.2048m  
  152.30000n      1.2048m  
  152.40000n      1.2048m  
  152.50000n      1.2048m  
  152.60000n      1.2048m  
  152.70000n      1.2048m  
  152.80000n      1.2048m  
  152.90000n      1.2048m  
  153.00000n      1.2048m  
  153.10000n      1.2048m  
  153.20000n      1.2048m  
  153.30000n      1.2048m  
  153.40000n      1.2048m  
  153.50000n      1.2048m  
  153.60000n      1.2048m  
  153.70000n      1.2048m  
  153.80000n      1.2048m  
  153.90000n      1.2048m  
  154.00000n      1.2048m  
  154.10000n      1.2048m  
  154.20000n      1.2048m  
  154.30000n      1.2048m  
  154.40000n      1.2048m  
  154.50000n      1.2048m  
  154.60000n      1.2048m  
  154.70000n      1.2048m  
  154.80000n      1.2048m  
  154.90000n      1.2048m  
  155.00000n      1.2048m  
  155.10000n      1.2048m  
  155.20000n      1.2048m  
  155.30000n      1.2048m  
  155.40000n      1.2048m  
  155.50000n      1.2048m  
  155.60000n      1.2048m  
  155.70000n      1.2048m  
  155.80000n      1.2048m  
  155.90000n      1.2048m  
  156.00000n      1.2048m  
  156.10000n      1.2048m  
  156.20000n      1.2048m  
  156.30000n      1.2048m  
  156.40000n      1.2048m  
  156.50000n      1.2048m  
  156.60000n      1.2048m  
  156.70000n      1.2048m  
  156.80000n      1.2048m  
  156.90000n      1.2048m  
  157.00000n      1.2048m  
  157.10000n      1.2048m  
  157.20000n      1.2048m  
  157.30000n      1.2048m  
  157.40000n      1.2048m  
  157.50000n      1.2048m  
  157.60000n      1.2048m  
  157.70000n      1.2048m  
  157.80000n      1.2048m  
  157.90000n      1.2048m  
  158.00000n      1.2048m  
  158.10000n      1.2048m  
  158.20000n      1.2048m  
  158.30000n      1.2048m  
  158.40000n      1.2048m  
  158.50000n      1.2048m  
  158.60000n      1.2048m  
  158.70000n      1.2048m  
  158.80000n      1.2048m  
  158.90000n      1.2048m  
  159.00000n      1.2048m  
  159.10000n      1.2048m  
  159.20000n      1.2048m  
  159.30000n      1.2048m  
  159.40000n      1.2048m  
  159.50000n      1.2048m  
  159.60000n      1.2048m  
  159.70000n      1.2048m  
  159.80000n      1.2048m  
  159.90000n      1.2048m  
  160.00000n      1.2048m  
  160.10000n      1.2048m  
  160.20000n      1.2048m  
  160.30000n      1.2048m  
  160.40000n      1.2048m  
  160.50000n      1.2048m  
  160.60000n      1.2048m  
  160.70000n      1.2048m  
  160.80000n      1.2048m  
  160.90000n      1.2048m  
  161.00000n      1.2048m  
  161.10000n      1.2048m  
  161.20000n      1.2048m  
  161.30000n      1.2048m  
  161.40000n      1.2048m  
  161.50000n      1.2048m  
  161.60000n      1.2048m  
  161.70000n      1.2048m  
  161.80000n      1.2048m  
  161.90000n      1.2048m  
  162.00000n      1.2048m  
  162.10000n      1.2048m  
  162.20000n      1.2048m  
  162.30000n      1.2048m  
  162.40000n      1.2048m  
  162.50000n      1.2048m  
  162.60000n      1.2048m  
  162.70000n      1.2048m  
  162.80000n      1.2048m  
  162.90000n      1.2048m  
  163.00000n      1.2048m  
  163.10000n      1.2048m  
  163.20000n      1.2048m  
  163.30000n      1.2048m  
  163.40000n      1.2048m  
  163.50000n      1.2048m  
  163.60000n      1.2048m  
  163.70000n      1.2048m  
  163.80000n      1.2048m  
  163.90000n      1.2048m  
  164.00000n      1.2048m  
  164.10000n      1.2048m  
  164.20000n      1.2048m  
  164.30000n      1.2048m  
  164.40000n      1.2048m  
  164.50000n      1.2048m  
  164.60000n      1.2048m  
  164.70000n      1.2048m  
  164.80000n      1.2048m  
  164.90000n      1.2048m  
  165.00000n      1.2048m  
  165.10000n      1.2048m  
  165.20000n      1.2048m  
  165.30000n      1.2048m  
  165.40000n      1.2048m  
  165.50000n      1.2048m  
  165.60000n      1.2048m  
  165.70000n      1.2048m  
  165.80000n      1.2048m  
  165.90000n      1.2048m  
  166.00000n      1.2048m  
  166.10000n      1.2048m  
  166.20000n      1.2048m  
  166.30000n      1.2048m  
  166.40000n      1.2048m  
  166.50000n      1.2048m  
  166.60000n      1.2048m  
  166.70000n      1.2048m  
  166.80000n      1.2048m  
  166.90000n      1.2048m  
  167.00000n      1.2048m  
  167.10000n      1.2048m  
  167.20000n      1.2048m  
  167.30000n      1.2048m  
  167.40000n      1.2048m  
  167.50000n      1.2048m  
  167.60000n      1.2048m  
  167.70000n      1.2048m  
  167.80000n      1.2048m  
  167.90000n      1.2048m  
  168.00000n      1.2048m  
  168.10000n      1.2048m  
  168.20000n      1.2048m  
  168.30000n      1.2048m  
  168.40000n      1.2048m  
  168.50000n      1.2048m  
  168.60000n      1.2048m  
  168.70000n      1.2048m  
  168.80000n      1.2048m  
  168.90000n      1.2048m  
  169.00000n      1.2048m  
  169.10000n      1.2048m  
  169.20000n      1.2048m  
  169.30000n      1.2048m  
  169.40000n      1.2048m  
  169.50000n      1.2048m  
  169.60000n      1.2048m  
  169.70000n      1.2048m  
  169.80000n      1.2048m  
  169.90000n      1.2048m  
  170.00000n      1.2048m  
  170.10000n      1.2048m  
  170.20000n      1.2048m  
  170.30000n      1.2048m  
  170.40000n      1.2048m  
  170.50000n      1.2048m  
  170.60000n      1.2048m  
  170.70000n      1.2048m  
  170.80000n      1.2048m  
  170.90000n      1.2048m  
  171.00000n      1.2048m  
  171.10000n      1.2048m  
  171.20000n      1.2048m  
  171.30000n      1.2048m  
  171.40000n      1.2048m  
  171.50000n      1.2048m  
  171.60000n      1.2048m  
  171.70000n      1.2048m  
  171.80000n      1.2048m  
  171.90000n      1.2048m  
  172.00000n      1.2048m  
  172.10000n      1.2048m  
  172.20000n      1.2048m  
  172.30000n      1.2048m  
  172.40000n      1.2048m  
  172.50000n      1.2048m  
  172.60000n      1.2048m  
  172.70000n      1.2048m  
  172.80000n      1.2048m  
  172.90000n      1.2048m  
  173.00000n      1.2048m  
  173.10000n      1.2048m  
  173.20000n      1.2048m  
  173.30000n      1.2048m  
  173.40000n      1.2048m  
  173.50000n      1.2048m  
  173.60000n      1.2048m  
  173.70000n      1.2048m  
  173.80000n      1.2048m  
  173.90000n      1.2048m  
  174.00000n      1.2048m  
  174.10000n      1.2048m  
  174.20000n      1.2048m  
  174.30000n      1.2048m  
  174.40000n      1.2048m  
  174.50000n      1.2048m  
  174.60000n      1.2048m  
  174.70000n      1.2048m  
  174.80000n      1.2048m  
  174.90000n      1.2048m  
  175.00000n      1.2048m  
  175.10000n      1.2048m  
  175.20000n      1.2048m  
  175.30000n      1.2048m  
  175.40000n      1.2048m  
  175.50000n      1.2048m  
  175.60000n      1.2048m  
  175.70000n      1.2048m  
  175.80000n      1.2048m  
  175.90000n      1.2048m  
  176.00000n      1.2048m  
  176.10000n      1.2048m  
  176.20000n      1.2048m  
  176.30000n      1.2048m  
  176.40000n      1.2048m  
  176.50000n      1.2048m  
  176.60000n      1.2048m  
  176.70000n      1.2048m  
  176.80000n      1.2048m  
  176.90000n      1.2048m  
  177.00000n      1.2048m  
  177.10000n      1.2048m  
  177.20000n      1.2048m  
  177.30000n      1.2048m  
  177.40000n      1.2048m  
  177.50000n      1.2048m  
  177.60000n      1.2048m  
  177.70000n      1.2048m  
  177.80000n      1.2048m  
  177.90000n      1.2048m  
  178.00000n      1.2048m  
  178.10000n      1.2048m  
  178.20000n      1.2048m  
  178.30000n      1.2048m  
  178.40000n      1.2048m  
  178.50000n      1.2048m  
  178.60000n      1.2048m  
  178.70000n      1.2048m  
  178.80000n      1.2048m  
  178.90000n      1.2048m  
  179.00000n      1.2048m  
  179.10000n      1.2048m  
  179.20000n      1.2048m  
  179.30000n      1.2048m  
  179.40000n      1.2048m  
  179.50000n      1.2048m  
  179.60000n      1.2048m  
  179.70000n      1.2048m  
  179.80000n      1.2048m  
  179.90000n      1.2048m  
  180.00000n      1.2048m  
  180.10000n      1.2048m  
  180.20000n      1.2048m  
  180.30000n      1.2048m  
  180.40000n      1.2048m  
  180.50000n      1.2048m  
  180.60000n      1.2048m  
  180.70000n      1.2048m  
  180.80000n      1.2048m  
  180.90000n      1.2048m  
  181.00000n      1.2048m  
  181.10000n      1.2048m  
  181.20000n      1.2048m  
  181.30000n      1.2048m  
  181.40000n      1.2048m  
  181.50000n      1.2048m  
  181.60000n      1.2048m  
  181.70000n      1.2048m  
  181.80000n      1.2048m  
  181.90000n      1.2048m  
  182.00000n      1.2048m  
  182.10000n      1.2048m  
  182.20000n      1.2048m  
  182.30000n      1.2048m  
  182.40000n      1.2048m  
  182.50000n      1.2048m  
  182.60000n      1.2048m  
  182.70000n      1.2048m  
  182.80000n      1.2048m  
  182.90000n      1.2048m  
  183.00000n      1.2048m  
  183.10000n      1.2048m  
  183.20000n      1.2048m  
  183.30000n      1.2048m  
  183.40000n      1.2048m  
  183.50000n      1.2048m  
  183.60000n      1.2048m  
  183.70000n      1.2048m  
  183.80000n      1.2048m  
  183.90000n      1.2048m  
  184.00000n      1.2048m  
  184.10000n      1.2048m  
  184.20000n      1.2048m  
  184.30000n      1.2048m  
  184.40000n      1.2048m  
  184.50000n      1.2048m  
  184.60000n      1.2048m  
  184.70000n      1.2048m  
  184.80000n      1.2048m  
  184.90000n      1.2048m  
  185.00000n      1.2048m  
  185.10000n      1.2048m  
  185.20000n      1.2048m  
  185.30000n      1.2048m  
  185.40000n      1.2048m  
  185.50000n      1.2048m  
  185.60000n      1.2048m  
  185.70000n      1.2048m  
  185.80000n      1.2048m  
  185.90000n      1.2048m  
  186.00000n      1.2048m  
  186.10000n      1.2048m  
  186.20000n      1.2048m  
  186.30000n      1.2048m  
  186.40000n      1.2048m  
  186.50000n      1.2048m  
  186.60000n      1.2048m  
  186.70000n      1.2048m  
  186.80000n      1.2048m  
  186.90000n      1.2048m  
  187.00000n      1.2048m  
  187.10000n      1.2048m  
  187.20000n      1.2048m  
  187.30000n      1.2048m  
  187.40000n      1.2048m  
  187.50000n      1.2048m  
  187.60000n      1.2048m  
  187.70000n      1.2048m  
  187.80000n      1.2048m  
  187.90000n      1.2048m  
  188.00000n      1.2048m  
  188.10000n      1.2048m  
  188.20000n      1.2048m  
  188.30000n      1.2048m  
  188.40000n      1.2048m  
  188.50000n      1.2048m  
  188.60000n      1.2048m  
  188.70000n      1.2048m  
  188.80000n      1.2048m  
  188.90000n      1.2048m  
  189.00000n      1.2048m  
  189.10000n      1.2048m  
  189.20000n      1.2048m  
  189.30000n      1.2048m  
  189.40000n      1.2048m  
  189.50000n      1.2048m  
  189.60000n      1.2048m  
  189.70000n      1.2048m  
  189.80000n      1.2048m  
  189.90000n      1.2048m  
  190.00000n      1.2048m  
  190.10000n      1.2048m  
  190.20000n      1.2048m  
  190.30000n      1.2048m  
  190.40000n      1.2048m  
  190.50000n      1.2048m  
  190.60000n      1.2048m  
  190.70000n      1.2048m  
  190.80000n      1.2048m  
  190.90000n      1.2048m  
  191.00000n      1.2048m  
  191.10000n      1.2048m  
  191.20000n      1.2048m  
  191.30000n      1.2048m  
  191.40000n      1.2048m  
  191.50000n      1.2048m  
  191.60000n      1.2048m  
  191.70000n      1.2048m  
  191.80000n      1.2048m  
  191.90000n      1.2048m  
  192.00000n      1.2048m  
  192.10000n      1.2048m  
  192.20000n      1.2048m  
  192.30000n      1.2048m  
  192.40000n      1.2048m  
  192.50000n      1.2048m  
  192.60000n      1.2048m  
  192.70000n      1.2048m  
  192.80000n      1.2048m  
  192.90000n      1.2048m  
  193.00000n      1.2048m  
  193.10000n      1.2048m  
  193.20000n      1.2048m  
  193.30000n      1.2048m  
  193.40000n      1.2048m  
  193.50000n      1.2048m  
  193.60000n      1.2048m  
  193.70000n      1.2048m  
  193.80000n      1.2048m  
  193.90000n      1.2048m  
  194.00000n      1.2048m  
  194.10000n      1.2048m  
  194.20000n      1.2048m  
  194.30000n      1.2048m  
  194.40000n      1.2048m  
  194.50000n      1.2048m  
  194.60000n      1.2048m  
  194.70000n      1.2048m  
  194.80000n      1.2048m  
  194.90000n      1.2048m  
  195.00000n      1.2048m  
  195.10000n      1.2048m  
  195.20000n      1.2048m  
  195.30000n      1.2048m  
  195.40000n      1.2048m  
  195.50000n      1.2048m  
  195.60000n      1.2048m  
  195.70000n      1.2048m  
  195.80000n      1.2048m  
  195.90000n      1.2048m  
  196.00000n      1.2048m  
  196.10000n      1.2048m  
  196.20000n      1.2048m  
  196.30000n      1.2048m  
  196.40000n      1.2048m  
  196.50000n      1.2048m  
  196.60000n      1.2048m  
  196.70000n      1.2048m  
  196.80000n      1.2048m  
  196.90000n      1.2048m  
  197.00000n      1.2048m  
  197.10000n      1.2048m  
  197.20000n      1.2048m  
  197.30000n      1.2048m  
  197.40000n      1.2048m  
  197.50000n      1.2048m  
  197.60000n      1.2048m  
  197.70000n      1.2048m  
  197.80000n      1.2048m  
  197.90000n      1.2048m  
  198.00000n      1.2048m  
  198.10000n      1.2048m  
  198.20000n      1.2048m  
  198.30000n      1.2048m  
  198.40000n      1.2048m  
  198.50000n      1.2048m  
  198.60000n      1.2048m  
  198.70000n      1.2048m  
  198.80000n      1.2048m  
  198.90000n      1.2048m  
  199.00000n      1.2048m  
  199.10000n      1.2048m  
  199.20000n      1.2048m  
  199.30000n      1.2048m  
  199.40000n      1.2048m  
  199.50000n      1.2048m  
  199.60000n      1.2048m  
  199.70000n      1.2048m  
  199.80000n      1.2048m  
  199.90000n      1.2048m  
  200.00000n      1.2048m  
y

          ***** job concluded
1****** HSPICE -- A-2008.03 32-BIT (Feb 26 2008) winnt ******                   
 ******  
 * fist part                                                                    
  ******  job statistics summary           tnom=  25.000 temp=  25.000          
 ******  

           total memory used        157 kbytes

  # nodes =       7 # elements=       3
  # diodes=       0 # bjts    =       0 # jfets   =       0 # mosfets =       1
  # va device =       0

    analysis           time    # points   tot. iter  conv.iter

    op point           0.02           1           4
    transient          0.10        1991          54          27 rev=         0
    readin             0.01
    errchk             0.01
    setup              0.01
    output             0.01
           total cpu time          0.17 seconds
           total elapsed time         1 seconds
               job started at  04:02:44 03/01/2019
               job ended   at  04:02:44 03/01/2019


 Init: hspice initialization file: C:\synopsys\Hspice_A-2008.03\hspice.ini
